12
(E)-2-Butene-d8, ID: C1517551
C          0.93234       -0.07070        0.02554
C          0.42778        0.70669       -1.15359
C         -0.34490        0.14291       -2.09391
C         -0.84946        0.92030       -3.27304
H          0.58817       -1.12703        0.00388
H          0.56619        0.40328        0.95978
H          2.04202       -0.05839        0.02389
H          0.70621        1.75391       -1.23110
H         -0.62333       -0.90431       -2.01640
H         -0.48331        0.44632       -4.20729
H         -1.95913        0.90799       -3.27139
H         -0.50528        1.97663       -3.25138
