12
2-Butene, (Z)-, ID: C590181
C          1.04400        0.04483        0.14196
C          0.37309        0.62633        1.14804
C          0.93854        1.31875        2.34525
C          2.52445       -0.05627       -0.03270
H          0.45912       -0.41542       -0.65393
H         -0.71555        0.60291        1.10751
H          2.03000        1.33122        2.36684
H          0.59108        0.82167        3.25634
H          0.59105        2.35635        2.36898
H          3.09177        0.41069        0.77478
H          2.81826        0.42530       -0.97061
H          2.81833       -1.10936       -0.08322
